/*--------------------------------*- C++ -*----------------------------------*\
| =========                 |                                                 |
| \\      /  F ield         | OpenFOAM: The Open Source CFD Toolbox           |
|  \\    /   O peration     | Version:  v2212                                 |
|   \\  /    A nd           | Website:  www.openfoam.com                      |
|    \\/     M anipulation  |                                                 |
\*---------------------------------------------------------------------------*/
FoamFile
{
    version     2.0;
    format      ascii;
    class       volVectorField;
    object      U;
}
// * * * * * * * * * * * * * * * * * * * * * * * * * * * * * * * * * * * * * //

Umean 1.09;
mUmean -1.09;

dimensions      [0 1 -1 0 0 0 0];

internalField   uniform ($mUmean 0 0);

boundaryField
{
    #includeEtc "caseDicts/setConstraintTypes"



	inlet
    {
        type            fixedValue;
        value           $internalField;
    }

    outlet
    {
        type            zeroGradient;
        value           $internalField;
    }


    "ship.*"
    {
        type            slip;
    }
}


// ************************************************************************* //
