/*--------------------------------*- C++ -*----------------------------------*\
| =========                 |                                                 |
| \\      /  F ield         | OpenFOAM: The Open Source CFD Toolbox           |
|  \\    /   O peration     | Version:  4.0                                   |
|   \\  /    A nd           | Web:      www.OpenFOAM.org                      |
|    \\/     M anipulation  |                                                 |
\*---------------------------------------------------------------------------*/
FoamFile
{
    version     2.0;
    format      ascii;
    class       dictionary;
    object      blockMeshDict;
}
// * * * * * * * * * * * * * * * * * * * * * * * * * * * * * * * * * * * * * //



convertToMeters 1;


vertices
(
    (-8.28 -5.65248 -4.3056)
    (7.26432 -5.65248 -4.3056)
    (7.26432 5.65248 -4.3056)
    (-8.28 5.65248 -4.3056)
    (-8.28 -5.65248 2.76)
    (7.26432 -5.65248 2.76)
    (7.26432 5.65248 2.76)
    (-8.28 5.65248 2.76)
);

blocks
(
    hex (0 1 2 3 4 5 6 7) (22 16 10) simpleGrading (1 1 1)
);

edges
(
);

boundary
(
    top
    {
        type patch;
        faces
        (
             (4 5 6 7)
        );
    }
    inlet
    {
        type patch;
        faces
        (
            (1 2 6 5)
        );
    }
    outlet
    {
        type patch;
        faces
        (
            (0 4 7 3)
        );
    }
    bottom
    {
        type symmetryPlane;
        faces
        (
            (0 3 2 1)
        );
    }
    side1
    {
        type symmetryPlane;
        faces
        (
            (0 1 5 4)
        );
    }
    side2
    {
        type symmetryPlane;
        faces
        (
            (3 7 6 2)
        );
    }
);

mergePatchPairs
(
);

// ************************************************************************* //
