/*--------------------------------*- C++ -*----------------------------------*\
| =========                 |                                                 |
| \\      /  F ield         | OpenFOAM: The Open Source CFD Toolbox           |
|  \\    /   O peration     | Version:  v2212                                 |
|   \\  /    A nd           | Website:  www.openfoam.com                      |
|    \\/     M anipulation  |                                                 |
\*---------------------------------------------------------------------------*/
FoamFile
{
    version     2.0;
    format      ascii;
    class       dictionary;
    object      controlDict;
}
// * * * * * * * * * * * * * * * * * * * * * * * * * * * * * * * * * * * * * //

application     interFoam;

startFrom       latestTime;

startTime       0;

stopAt          endTime;

endTime         10000;

deltaT          1;

writeControl    timeStep;

writeInterval   100;

purgeWrite      1;

writeFormat     binary;

writePrecision  6;

writeCompression off;

timeFormat      general;

timePrecision   6;

runTimeModifiable yes;
maxAlphaCo 5;
adjustTimeStep false;

functions
{
   fileUpdate1
      {
	           type              timeActivatedFileUpdate;
		        libs              ("libutilityFunctionObjects.so");
			     writeControl      timeStep;
			          writeInterval     1;
				       fileToUpdate      "$FOAM_CASE/system/fvSchemes";
				            timeVsFile
						         (
							           // start with first order
								            (-1 "$FOAM_CASE/system/fvSchemes_1")
						                  // after 1 iterations use second order
						                           (500 "$FOAM_CASE/system/fvSchemes_2")  
								                                   );
	                     }


	forces
    {
        type            forces;
        libs            (forces);
        patches         ("ship.*");
        rhoInf          998.8;
        log             on;
        writeControl    timeStep;
        writeInterval   1;
        CofR            (1.38 0 0.0);
    }
}


// ************************************************************************* //
